ra-optimisation/search-tree-rao/src/test/resources/network/3WT_network_asfunction.xiidm
<?xml version="1.0" encoding="UTF-8"?>
<iidm:network xmlns:iidm="http://www.powsybl.org/schema/iidm/1_14" id="three-windings-transformer-control" caseDate="2025-09-22T13:28:21.634Z" forecastDistance="0" sourceFormat="test" minimumValidationLevel="STEADY_STATE_HYPOTHESIS">
    <iidm:substation id="SUBSTATION1" country="FR">
        <iidm:voltageLevel id="VL_1" nominalV="132.0" lowVoltageLimit="118.8" highVoltageLimit="145.2" topologyKind="BUS_BREAKER">
            <iidm:busBreakerTopology>
                <iidm:bus id="BUS_1"/>
            </iidm:busBreakerTopology>
            <iidm:generator id="GEN_1" energySource="OTHER" minP="0.0" maxP="140.0" voltageRegulatorOn="true" targetP="25.0" targetV="135.0" bus="BUS_1" connectableBus="BUS_1">
                <iidm:minMaxReactiveLimits minQ="-1.7976931348623157E308" maxQ="1.7976931348623157E308"/>
            </iidm:generator>
        </iidm:voltageLevel>
    </iidm:substation>
    <iidm:substation id="SUBSTATION" country="FR">
        <iidm:voltageLevel id="VL_2" nominalV="132.0" lowVoltageLimit="118.8" highVoltageLimit="145.2" topologyKind="BUS_BREAKER">
            <iidm:busBreakerTopology>
                <iidm:bus id="BUS_2"/>
            </iidm:busBreakerTopology>
            <iidm:load id="LOAD_2" loadType="UNDEFINED" p0="11.2" q0="7.5" bus="BUS_2" connectableBus="BUS_2"/>
        </iidm:voltageLevel>
        <iidm:voltageLevel id="VL_3" nominalV="33.0" lowVoltageLimit="0.0" highVoltageLimit="100.0" topologyKind="BUS_BREAKER">
            <iidm:busBreakerTopology>
                <iidm:bus id="BUS_3"/>
            </iidm:busBreakerTopology>
            <iidm:load id="LOAD_3" loadType="UNDEFINED" p0="5.0" q0="0.0" bus="BUS_3" connectableBus="BUS_3"/>
        </iidm:voltageLevel>
        <iidm:voltageLevel id="VL_4" nominalV="10.0" lowVoltageLimit="5.0" highVoltageLimit="15.0" topologyKind="BUS_BREAKER">
            <iidm:busBreakerTopology>
                <iidm:bus id="BUS_4"/>
            </iidm:busBreakerTopology>
            <iidm:load id="LOAD_4" loadType="UNDEFINED" p0="5.0" q0="0.0" bus="BUS_4" connectableBus="BUS_4"/>
        </iidm:voltageLevel>
        <iidm:threeWindingsTransformer id="T3wT" r1="2.0" x1="10.0" g1="0.0" b1="0.0" ratedU1="130.0" r2="2.0" x2="10.0" g2="0.0" b2="0.0" ratedU2="30.0" r3="2.0" x3="10.0" g3="0.0" b3="0.0" ratedU3="10.0" ratedU0="200.0" voltageLevelId1="VL_2" bus1="BUS_2" connectableBus1="BUS_2" voltageLevelId2="VL_3" bus2="BUS_3" connectableBus2="BUS_3" voltageLevelId3="VL_4" bus3="BUS_4" connectableBus3="BUS_4">
            <iidm:ratioTapChanger2 regulating="false" lowTapPosition="0" tapPosition="0" loadTapChangingCapabilities="true" regulationMode="VOLTAGE" regulationValue="33.0">
                <iidm:terminalRef id="LOAD_3"/>
                <iidm:step r="0.1089" x="0.01089" g="0.8264462809917356" b="0.08264462809917356" rho="0.9"/>
                <iidm:step r="0.121" x="0.0121" g="0.8264462809917356" b="0.08264462809917356" rho="1.0"/>
                <iidm:step r="0.1331" x="0.01331" g="0.9090909090909092" b="0.09090909090909093" rho="1.1"/>
            </iidm:ratioTapChanger2>
        </iidm:threeWindingsTransformer>
    </iidm:substation>
    <iidm:line id="LINE_12" r="1.05" x="10.0" g1="5.0E-7" b1="0.0" g2="0.0" b2="0.0" voltageLevelId1="VL_1" bus1="BUS_1" connectableBus1="BUS_1" voltageLevelId2="VL_2" bus2="BUS_2" connectableBus2="BUS_2"/>
</iidm:network>
